[General]
network = Jellyfish__fvj_dc_big_traffic_seed5

sim-time-limit = 1000s
simtime-resolution = us
total-stack = 32MiB
**.cmdenv-log-level = warn

# For router
**.ppp[*].ppp.queue.typename = "DropTailQueue"
**.ppp[*].ppp.queue.packetCapacity = 100

# Configurator settings
*.configurator.config = xmldoc("Jellyfish__fvj_dc_big_traffic_seed5.xml")

# Setup TCP server "sink_000"
**.sink_000.numApps = 1
**.sink_000.app[0].typename = "TcpGenericServerApp"
**.sink_000.app[0].localAddress = ""
**.sink_000.app[0].localPort = 1100
**.sink_000.app[0].replyDelay = 0s

# Setup TCP server "sink_001"
**.sink_001.numApps = 1
**.sink_001.app[0].typename = "TcpGenericServerApp"
**.sink_001.app[0].localAddress = ""
**.sink_001.app[0].localPort = 1100
**.sink_001.app[0].replyDelay = 0s

# Setup TCP server "sink_002"
**.sink_002.numApps = 1
**.sink_002.app[0].typename = "TcpGenericServerApp"
**.sink_002.app[0].localAddress = ""
**.sink_002.app[0].localPort = 1100
**.sink_002.app[0].replyDelay = 0s

# Setup TCP server "sink_003"
**.sink_003.numApps = 1
**.sink_003.app[0].typename = "TcpGenericServerApp"
**.sink_003.app[0].localAddress = ""
**.sink_003.app[0].localPort = 1100
**.sink_003.app[0].replyDelay = 0s

# Setup TCP server "sink_004"
**.sink_004.numApps = 1
**.sink_004.app[0].typename = "TcpGenericServerApp"
**.sink_004.app[0].localAddress = ""
**.sink_004.app[0].localPort = 1100
**.sink_004.app[0].replyDelay = 0s

# Setup TCP server "sink_005"
**.sink_005.numApps = 1
**.sink_005.app[0].typename = "TcpGenericServerApp"
**.sink_005.app[0].localAddress = ""
**.sink_005.app[0].localPort = 1100
**.sink_005.app[0].replyDelay = 0s

# Setup TCP server "sink_006"
**.sink_006.numApps = 1
**.sink_006.app[0].typename = "TcpGenericServerApp"
**.sink_006.app[0].localAddress = ""
**.sink_006.app[0].localPort = 1100
**.sink_006.app[0].replyDelay = 0s

# Setup TCP server "sink_007"
**.sink_007.numApps = 1
**.sink_007.app[0].typename = "TcpGenericServerApp"
**.sink_007.app[0].localAddress = ""
**.sink_007.app[0].localPort = 1100
**.sink_007.app[0].replyDelay = 0s

# Setup TCP server "sink_008"
**.sink_008.numApps = 1
**.sink_008.app[0].typename = "TcpGenericServerApp"
**.sink_008.app[0].localAddress = ""
**.sink_008.app[0].localPort = 1100
**.sink_008.app[0].replyDelay = 0s

# Setup TCP server "sink_009"
**.sink_009.numApps = 1
**.sink_009.app[0].typename = "TcpGenericServerApp"
**.sink_009.app[0].localAddress = ""
**.sink_009.app[0].localPort = 1100
**.sink_009.app[0].replyDelay = 0s

# Setup TCP server "sink_010"
**.sink_010.numApps = 1
**.sink_010.app[0].typename = "TcpGenericServerApp"
**.sink_010.app[0].localAddress = ""
**.sink_010.app[0].localPort = 1100
**.sink_010.app[0].replyDelay = 0s

# Setup TCP server "sink_011"
**.sink_011.numApps = 1
**.sink_011.app[0].typename = "TcpGenericServerApp"
**.sink_011.app[0].localAddress = ""
**.sink_011.app[0].localPort = 1100
**.sink_011.app[0].replyDelay = 0s

# Setup TCP server "sink_012"
**.sink_012.numApps = 1
**.sink_012.app[0].typename = "TcpGenericServerApp"
**.sink_012.app[0].localAddress = ""
**.sink_012.app[0].localPort = 1100
**.sink_012.app[0].replyDelay = 0s

# Setup TCP server "sink_013"
**.sink_013.numApps = 1
**.sink_013.app[0].typename = "TcpGenericServerApp"
**.sink_013.app[0].localAddress = ""
**.sink_013.app[0].localPort = 1100
**.sink_013.app[0].replyDelay = 0s

# Setup TCP server "sink_014"
**.sink_014.numApps = 1
**.sink_014.app[0].typename = "TcpGenericServerApp"
**.sink_014.app[0].localAddress = ""
**.sink_014.app[0].localPort = 1100
**.sink_014.app[0].replyDelay = 0s

# Setup TCP server "sink_015"
**.sink_015.numApps = 1
**.sink_015.app[0].typename = "TcpGenericServerApp"
**.sink_015.app[0].localAddress = ""
**.sink_015.app[0].localPort = 1100
**.sink_015.app[0].replyDelay = 0s

# Setup TCP server "sink_016"
**.sink_016.numApps = 1
**.sink_016.app[0].typename = "TcpGenericServerApp"
**.sink_016.app[0].localAddress = ""
**.sink_016.app[0].localPort = 1100
**.sink_016.app[0].replyDelay = 0s

# Setup TCP server "sink_017"
**.sink_017.numApps = 1
**.sink_017.app[0].typename = "TcpGenericServerApp"
**.sink_017.app[0].localAddress = ""
**.sink_017.app[0].localPort = 1100
**.sink_017.app[0].replyDelay = 0s

# Setup TCP server "sink_018"
**.sink_018.numApps = 1
**.sink_018.app[0].typename = "TcpGenericServerApp"
**.sink_018.app[0].localAddress = ""
**.sink_018.app[0].localPort = 1100
**.sink_018.app[0].replyDelay = 0s

# Setup TCP server "sink_019"
**.sink_019.numApps = 1
**.sink_019.app[0].typename = "TcpGenericServerApp"
**.sink_019.app[0].localAddress = ""
**.sink_019.app[0].localPort = 1100
**.sink_019.app[0].replyDelay = 0s

# Setup TCP server "sink_020"
**.sink_020.numApps = 1
**.sink_020.app[0].typename = "TcpGenericServerApp"
**.sink_020.app[0].localAddress = ""
**.sink_020.app[0].localPort = 1100
**.sink_020.app[0].replyDelay = 0s

# Setup TCP server "sink_021"
**.sink_021.numApps = 1
**.sink_021.app[0].typename = "TcpGenericServerApp"
**.sink_021.app[0].localAddress = ""
**.sink_021.app[0].localPort = 1100
**.sink_021.app[0].replyDelay = 0s

# Setup TCP server "sink_022"
**.sink_022.numApps = 1
**.sink_022.app[0].typename = "TcpGenericServerApp"
**.sink_022.app[0].localAddress = ""
**.sink_022.app[0].localPort = 1100
**.sink_022.app[0].replyDelay = 0s

# Setup TCP server "sink_023"
**.sink_023.numApps = 1
**.sink_023.app[0].typename = "TcpGenericServerApp"
**.sink_023.app[0].localAddress = ""
**.sink_023.app[0].localPort = 1100
**.sink_023.app[0].replyDelay = 0s

# Setup TCP server "sink_024"
**.sink_024.numApps = 1
**.sink_024.app[0].typename = "TcpGenericServerApp"
**.sink_024.app[0].localAddress = ""
**.sink_024.app[0].localPort = 1100
**.sink_024.app[0].replyDelay = 0s

# Setup TCP server "sink_025"
**.sink_025.numApps = 1
**.sink_025.app[0].typename = "TcpGenericServerApp"
**.sink_025.app[0].localAddress = ""
**.sink_025.app[0].localPort = 1100
**.sink_025.app[0].replyDelay = 0s

# Setup TCP server "sink_026"
**.sink_026.numApps = 1
**.sink_026.app[0].typename = "TcpGenericServerApp"
**.sink_026.app[0].localAddress = ""
**.sink_026.app[0].localPort = 1100
**.sink_026.app[0].replyDelay = 0s

# Setup TCP server "sink_027"
**.sink_027.numApps = 1
**.sink_027.app[0].typename = "TcpGenericServerApp"
**.sink_027.app[0].localAddress = ""
**.sink_027.app[0].localPort = 1100
**.sink_027.app[0].replyDelay = 0s

# Setup TCP server "sink_028"
**.sink_028.numApps = 1
**.sink_028.app[0].typename = "TcpGenericServerApp"
**.sink_028.app[0].localAddress = ""
**.sink_028.app[0].localPort = 1100
**.sink_028.app[0].replyDelay = 0s

# Setup TCP server "sink_029"
**.sink_029.numApps = 1
**.sink_029.app[0].typename = "TcpGenericServerApp"
**.sink_029.app[0].localAddress = ""
**.sink_029.app[0].localPort = 1100
**.sink_029.app[0].replyDelay = 0s

# Setup TCP server "sink_030"
**.sink_030.numApps = 1
**.sink_030.app[0].typename = "TcpGenericServerApp"
**.sink_030.app[0].localAddress = ""
**.sink_030.app[0].localPort = 1100
**.sink_030.app[0].replyDelay = 0s

# Setup TCP server "sink_031"
**.sink_031.numApps = 1
**.sink_031.app[0].typename = "TcpGenericServerApp"
**.sink_031.app[0].localAddress = ""
**.sink_031.app[0].localPort = 1100
**.sink_031.app[0].replyDelay = 0s

# Setup TCP server "sink_032"
**.sink_032.numApps = 1
**.sink_032.app[0].typename = "TcpGenericServerApp"
**.sink_032.app[0].localAddress = ""
**.sink_032.app[0].localPort = 1100
**.sink_032.app[0].replyDelay = 0s

# Setup TCP server "sink_033"
**.sink_033.numApps = 1
**.sink_033.app[0].typename = "TcpGenericServerApp"
**.sink_033.app[0].localAddress = ""
**.sink_033.app[0].localPort = 1100
**.sink_033.app[0].replyDelay = 0s

# Setup TCP server "sink_034"
**.sink_034.numApps = 1
**.sink_034.app[0].typename = "TcpGenericServerApp"
**.sink_034.app[0].localAddress = ""
**.sink_034.app[0].localPort = 1100
**.sink_034.app[0].replyDelay = 0s

# Setup TCP server "sink_035"
**.sink_035.numApps = 1
**.sink_035.app[0].typename = "TcpGenericServerApp"
**.sink_035.app[0].localAddress = ""
**.sink_035.app[0].localPort = 1100
**.sink_035.app[0].replyDelay = 0s

# Setup TCP server "sink_036"
**.sink_036.numApps = 1
**.sink_036.app[0].typename = "TcpGenericServerApp"
**.sink_036.app[0].localAddress = ""
**.sink_036.app[0].localPort = 1100
**.sink_036.app[0].replyDelay = 0s

# Setup TCP server "sink_037"
**.sink_037.numApps = 1
**.sink_037.app[0].typename = "TcpGenericServerApp"
**.sink_037.app[0].localAddress = ""
**.sink_037.app[0].localPort = 1100
**.sink_037.app[0].replyDelay = 0s

# Setup TCP server "sink_038"
**.sink_038.numApps = 1
**.sink_038.app[0].typename = "TcpGenericServerApp"
**.sink_038.app[0].localAddress = ""
**.sink_038.app[0].localPort = 1100
**.sink_038.app[0].replyDelay = 0s

# Setup TCP server "sink_039"
**.sink_039.numApps = 1
**.sink_039.app[0].typename = "TcpGenericServerApp"
**.sink_039.app[0].localAddress = ""
**.sink_039.app[0].localPort = 1100
**.sink_039.app[0].replyDelay = 0s

# Setup TCP server "sink_040"
**.sink_040.numApps = 1
**.sink_040.app[0].typename = "TcpGenericServerApp"
**.sink_040.app[0].localAddress = ""
**.sink_040.app[0].localPort = 1100
**.sink_040.app[0].replyDelay = 0s

# Setup TCP server "sink_041"
**.sink_041.numApps = 1
**.sink_041.app[0].typename = "TcpGenericServerApp"
**.sink_041.app[0].localAddress = ""
**.sink_041.app[0].localPort = 1100
**.sink_041.app[0].replyDelay = 0s

# Setup TCP server "sink_042"
**.sink_042.numApps = 1
**.sink_042.app[0].typename = "TcpGenericServerApp"
**.sink_042.app[0].localAddress = ""
**.sink_042.app[0].localPort = 1100
**.sink_042.app[0].replyDelay = 0s

# Setup TCP server "sink_043"
**.sink_043.numApps = 1
**.sink_043.app[0].typename = "TcpGenericServerApp"
**.sink_043.app[0].localAddress = ""
**.sink_043.app[0].localPort = 1100
**.sink_043.app[0].replyDelay = 0s

# Setup TCP server "sink_044"
**.sink_044.numApps = 1
**.sink_044.app[0].typename = "TcpGenericServerApp"
**.sink_044.app[0].localAddress = ""
**.sink_044.app[0].localPort = 1100
**.sink_044.app[0].replyDelay = 0s

# Setup TCP server "sink_045"
**.sink_045.numApps = 1
**.sink_045.app[0].typename = "TcpGenericServerApp"
**.sink_045.app[0].localAddress = ""
**.sink_045.app[0].localPort = 1100
**.sink_045.app[0].replyDelay = 0s

# Setup TCP server "sink_046"
**.sink_046.numApps = 1
**.sink_046.app[0].typename = "TcpGenericServerApp"
**.sink_046.app[0].localAddress = ""
**.sink_046.app[0].localPort = 1100
**.sink_046.app[0].replyDelay = 0s

# Setup TCP server "sink_047"
**.sink_047.numApps = 1
**.sink_047.app[0].typename = "TcpGenericServerApp"
**.sink_047.app[0].localAddress = ""
**.sink_047.app[0].localPort = 1100
**.sink_047.app[0].replyDelay = 0s

# Setup TCP server "sink_048"
**.sink_048.numApps = 1
**.sink_048.app[0].typename = "TcpGenericServerApp"
**.sink_048.app[0].localAddress = ""
**.sink_048.app[0].localPort = 1100
**.sink_048.app[0].replyDelay = 0s

# Setup TCP server "sink_049"
**.sink_049.numApps = 1
**.sink_049.app[0].typename = "TcpGenericServerApp"
**.sink_049.app[0].localAddress = ""
**.sink_049.app[0].localPort = 1100
**.sink_049.app[0].replyDelay = 0s

# Setup TCP server "sink_050"
**.sink_050.numApps = 1
**.sink_050.app[0].typename = "TcpGenericServerApp"
**.sink_050.app[0].localAddress = ""
**.sink_050.app[0].localPort = 1100
**.sink_050.app[0].replyDelay = 0s

# Setup TCP server "sink_051"
**.sink_051.numApps = 1
**.sink_051.app[0].typename = "TcpGenericServerApp"
**.sink_051.app[0].localAddress = ""
**.sink_051.app[0].localPort = 1100
**.sink_051.app[0].replyDelay = 0s

# Setup TCP server "sink_052"
**.sink_052.numApps = 1
**.sink_052.app[0].typename = "TcpGenericServerApp"
**.sink_052.app[0].localAddress = ""
**.sink_052.app[0].localPort = 1100
**.sink_052.app[0].replyDelay = 0s

# Setup TCP server "sink_053"
**.sink_053.numApps = 1
**.sink_053.app[0].typename = "TcpGenericServerApp"
**.sink_053.app[0].localAddress = ""
**.sink_053.app[0].localPort = 1100
**.sink_053.app[0].replyDelay = 0s

# Setup TCP server "sink_054"
**.sink_054.numApps = 1
**.sink_054.app[0].typename = "TcpGenericServerApp"
**.sink_054.app[0].localAddress = ""
**.sink_054.app[0].localPort = 1100
**.sink_054.app[0].replyDelay = 0s

# Setup TCP server "sink_055"
**.sink_055.numApps = 1
**.sink_055.app[0].typename = "TcpGenericServerApp"
**.sink_055.app[0].localAddress = ""
**.sink_055.app[0].localPort = 1100
**.sink_055.app[0].replyDelay = 0s

# Setup TCP server "sink_056"
**.sink_056.numApps = 1
**.sink_056.app[0].typename = "TcpGenericServerApp"
**.sink_056.app[0].localAddress = ""
**.sink_056.app[0].localPort = 1100
**.sink_056.app[0].replyDelay = 0s

# Setup TCP server "sink_057"
**.sink_057.numApps = 1
**.sink_057.app[0].typename = "TcpGenericServerApp"
**.sink_057.app[0].localAddress = ""
**.sink_057.app[0].localPort = 1100
**.sink_057.app[0].replyDelay = 0s

# Setup TCP server "sink_058"
**.sink_058.numApps = 1
**.sink_058.app[0].typename = "TcpGenericServerApp"
**.sink_058.app[0].localAddress = ""
**.sink_058.app[0].localPort = 1100
**.sink_058.app[0].replyDelay = 0s

# Setup TCP server "sink_059"
**.sink_059.numApps = 1
**.sink_059.app[0].typename = "TcpGenericServerApp"
**.sink_059.app[0].localAddress = ""
**.sink_059.app[0].localPort = 1100
**.sink_059.app[0].replyDelay = 0s

# Setup TCP server "sink_060"
**.sink_060.numApps = 1
**.sink_060.app[0].typename = "TcpGenericServerApp"
**.sink_060.app[0].localAddress = ""
**.sink_060.app[0].localPort = 1100
**.sink_060.app[0].replyDelay = 0s

# Setup TCP server "sink_061"
**.sink_061.numApps = 1
**.sink_061.app[0].typename = "TcpGenericServerApp"
**.sink_061.app[0].localAddress = ""
**.sink_061.app[0].localPort = 1100
**.sink_061.app[0].replyDelay = 0s

# Setup TCP server "sink_062"
**.sink_062.numApps = 1
**.sink_062.app[0].typename = "TcpGenericServerApp"
**.sink_062.app[0].localAddress = ""
**.sink_062.app[0].localPort = 1100
**.sink_062.app[0].replyDelay = 0s

# Setup TCP server "sink_063"
**.sink_063.numApps = 1
**.sink_063.app[0].typename = "TcpGenericServerApp"
**.sink_063.app[0].localAddress = ""
**.sink_063.app[0].localPort = 1100
**.sink_063.app[0].replyDelay = 0s

# Setup TCP server "sink_064"
**.sink_064.numApps = 1
**.sink_064.app[0].typename = "TcpGenericServerApp"
**.sink_064.app[0].localAddress = ""
**.sink_064.app[0].localPort = 1100
**.sink_064.app[0].replyDelay = 0s

# Setup TCP server "sink_065"
**.sink_065.numApps = 1
**.sink_065.app[0].typename = "TcpGenericServerApp"
**.sink_065.app[0].localAddress = ""
**.sink_065.app[0].localPort = 1100
**.sink_065.app[0].replyDelay = 0s

# Setup TCP server "sink_066"
**.sink_066.numApps = 1
**.sink_066.app[0].typename = "TcpGenericServerApp"
**.sink_066.app[0].localAddress = ""
**.sink_066.app[0].localPort = 1100
**.sink_066.app[0].replyDelay = 0s

# Setup TCP server "sink_067"
**.sink_067.numApps = 1
**.sink_067.app[0].typename = "TcpGenericServerApp"
**.sink_067.app[0].localAddress = ""
**.sink_067.app[0].localPort = 1100
**.sink_067.app[0].replyDelay = 0s

# Setup TCP server "sink_068"
**.sink_068.numApps = 1
**.sink_068.app[0].typename = "TcpGenericServerApp"
**.sink_068.app[0].localAddress = ""
**.sink_068.app[0].localPort = 1100
**.sink_068.app[0].replyDelay = 0s

# Setup TCP server "sink_069"
**.sink_069.numApps = 1
**.sink_069.app[0].typename = "TcpGenericServerApp"
**.sink_069.app[0].localAddress = ""
**.sink_069.app[0].localPort = 1100
**.sink_069.app[0].replyDelay = 0s

# Setup TCP server "sink_070"
**.sink_070.numApps = 1
**.sink_070.app[0].typename = "TcpGenericServerApp"
**.sink_070.app[0].localAddress = ""
**.sink_070.app[0].localPort = 1100
**.sink_070.app[0].replyDelay = 0s

# Setup TCP server "sink_071"
**.sink_071.numApps = 1
**.sink_071.app[0].typename = "TcpGenericServerApp"
**.sink_071.app[0].localAddress = ""
**.sink_071.app[0].localPort = 1100
**.sink_071.app[0].replyDelay = 0s

# Setup TCP server "sink_072"
**.sink_072.numApps = 1
**.sink_072.app[0].typename = "TcpGenericServerApp"
**.sink_072.app[0].localAddress = ""
**.sink_072.app[0].localPort = 1100
**.sink_072.app[0].replyDelay = 0s

# Setup TCP server "sink_073"
**.sink_073.numApps = 1
**.sink_073.app[0].typename = "TcpGenericServerApp"
**.sink_073.app[0].localAddress = ""
**.sink_073.app[0].localPort = 1100
**.sink_073.app[0].replyDelay = 0s

# Setup TCP server "sink_074"
**.sink_074.numApps = 1
**.sink_074.app[0].typename = "TcpGenericServerApp"
**.sink_074.app[0].localAddress = ""
**.sink_074.app[0].localPort = 1100
**.sink_074.app[0].replyDelay = 0s

# Setup TCP server "sink_075"
**.sink_075.numApps = 1
**.sink_075.app[0].typename = "TcpGenericServerApp"
**.sink_075.app[0].localAddress = ""
**.sink_075.app[0].localPort = 1100
**.sink_075.app[0].replyDelay = 0s

# Setup TCP server "sink_076"
**.sink_076.numApps = 1
**.sink_076.app[0].typename = "TcpGenericServerApp"
**.sink_076.app[0].localAddress = ""
**.sink_076.app[0].localPort = 1100
**.sink_076.app[0].replyDelay = 0s

# Setup TCP server "sink_077"
**.sink_077.numApps = 1
**.sink_077.app[0].typename = "TcpGenericServerApp"
**.sink_077.app[0].localAddress = ""
**.sink_077.app[0].localPort = 1100
**.sink_077.app[0].replyDelay = 0s

# Setup TCP server "sink_078"
**.sink_078.numApps = 1
**.sink_078.app[0].typename = "TcpGenericServerApp"
**.sink_078.app[0].localAddress = ""
**.sink_078.app[0].localPort = 1100
**.sink_078.app[0].replyDelay = 0s

# Setup TCP server "sink_079"
**.sink_079.numApps = 1
**.sink_079.app[0].typename = "TcpGenericServerApp"
**.sink_079.app[0].localAddress = ""
**.sink_079.app[0].localPort = 1100
**.sink_079.app[0].replyDelay = 0s

# Setup TCP server "sink_080"
**.sink_080.numApps = 1
**.sink_080.app[0].typename = "TcpGenericServerApp"
**.sink_080.app[0].localAddress = ""
**.sink_080.app[0].localPort = 1100
**.sink_080.app[0].replyDelay = 0s

# Setup TCP server "sink_081"
**.sink_081.numApps = 1
**.sink_081.app[0].typename = "TcpGenericServerApp"
**.sink_081.app[0].localAddress = ""
**.sink_081.app[0].localPort = 1100
**.sink_081.app[0].replyDelay = 0s

# Setup TCP server "sink_082"
**.sink_082.numApps = 1
**.sink_082.app[0].typename = "TcpGenericServerApp"
**.sink_082.app[0].localAddress = ""
**.sink_082.app[0].localPort = 1100
**.sink_082.app[0].replyDelay = 0s

# Setup TCP server "sink_083"
**.sink_083.numApps = 1
**.sink_083.app[0].typename = "TcpGenericServerApp"
**.sink_083.app[0].localAddress = ""
**.sink_083.app[0].localPort = 1100
**.sink_083.app[0].replyDelay = 0s

# Setup TCP server "sink_084"
**.sink_084.numApps = 1
**.sink_084.app[0].typename = "TcpGenericServerApp"
**.sink_084.app[0].localAddress = ""
**.sink_084.app[0].localPort = 1100
**.sink_084.app[0].replyDelay = 0s

# Setup TCP server "sink_085"
**.sink_085.numApps = 1
**.sink_085.app[0].typename = "TcpGenericServerApp"
**.sink_085.app[0].localAddress = ""
**.sink_085.app[0].localPort = 1100
**.sink_085.app[0].replyDelay = 0s

# Setup TCP server "sink_086"
**.sink_086.numApps = 1
**.sink_086.app[0].typename = "TcpGenericServerApp"
**.sink_086.app[0].localAddress = ""
**.sink_086.app[0].localPort = 1100
**.sink_086.app[0].replyDelay = 0s

# Setup TCP server "sink_087"
**.sink_087.numApps = 1
**.sink_087.app[0].typename = "TcpGenericServerApp"
**.sink_087.app[0].localAddress = ""
**.sink_087.app[0].localPort = 1100
**.sink_087.app[0].replyDelay = 0s

# Setup TCP server "sink_088"
**.sink_088.numApps = 1
**.sink_088.app[0].typename = "TcpGenericServerApp"
**.sink_088.app[0].localAddress = ""
**.sink_088.app[0].localPort = 1100
**.sink_088.app[0].replyDelay = 0s

# Setup TCP server "sink_089"
**.sink_089.numApps = 1
**.sink_089.app[0].typename = "TcpGenericServerApp"
**.sink_089.app[0].localAddress = ""
**.sink_089.app[0].localPort = 1100
**.sink_089.app[0].replyDelay = 0s

# Setup TCP server "sink_090"
**.sink_090.numApps = 1
**.sink_090.app[0].typename = "TcpGenericServerApp"
**.sink_090.app[0].localAddress = ""
**.sink_090.app[0].localPort = 1100
**.sink_090.app[0].replyDelay = 0s

# Setup TCP server "sink_091"
**.sink_091.numApps = 1
**.sink_091.app[0].typename = "TcpGenericServerApp"
**.sink_091.app[0].localAddress = ""
**.sink_091.app[0].localPort = 1100
**.sink_091.app[0].replyDelay = 0s

# Setup TCP server "sink_092"
**.sink_092.numApps = 1
**.sink_092.app[0].typename = "TcpGenericServerApp"
**.sink_092.app[0].localAddress = ""
**.sink_092.app[0].localPort = 1100
**.sink_092.app[0].replyDelay = 0s

# Setup TCP server "sink_093"
**.sink_093.numApps = 1
**.sink_093.app[0].typename = "TcpGenericServerApp"
**.sink_093.app[0].localAddress = ""
**.sink_093.app[0].localPort = 1100
**.sink_093.app[0].replyDelay = 0s

# Setup TCP server "sink_094"
**.sink_094.numApps = 1
**.sink_094.app[0].typename = "TcpGenericServerApp"
**.sink_094.app[0].localAddress = ""
**.sink_094.app[0].localPort = 1100
**.sink_094.app[0].replyDelay = 0s

# Setup TCP server "sink_095"
**.sink_095.numApps = 1
**.sink_095.app[0].typename = "TcpGenericServerApp"
**.sink_095.app[0].localAddress = ""
**.sink_095.app[0].localPort = 1100
**.sink_095.app[0].replyDelay = 0s

# Setup TCP server "sink_096"
**.sink_096.numApps = 1
**.sink_096.app[0].typename = "TcpGenericServerApp"
**.sink_096.app[0].localAddress = ""
**.sink_096.app[0].localPort = 1100
**.sink_096.app[0].replyDelay = 0s

# Setup TCP server "sink_097"
**.sink_097.numApps = 1
**.sink_097.app[0].typename = "TcpGenericServerApp"
**.sink_097.app[0].localAddress = ""
**.sink_097.app[0].localPort = 1100
**.sink_097.app[0].replyDelay = 0s

# Setup TCP server "sink_098"
**.sink_098.numApps = 1
**.sink_098.app[0].typename = "TcpGenericServerApp"
**.sink_098.app[0].localAddress = ""
**.sink_098.app[0].localPort = 1100
**.sink_098.app[0].replyDelay = 0s

# Setup TCP server "sink_099"
**.sink_099.numApps = 1
**.sink_099.app[0].typename = "TcpGenericServerApp"
**.sink_099.app[0].localAddress = ""
**.sink_099.app[0].localPort = 1100
**.sink_099.app[0].replyDelay = 0s

# Setup TCP server "sink_100"
**.sink_100.numApps = 1
**.sink_100.app[0].typename = "TcpGenericServerApp"
**.sink_100.app[0].localAddress = ""
**.sink_100.app[0].localPort = 1100
**.sink_100.app[0].replyDelay = 0s

# Setup TCP server "sink_101"
**.sink_101.numApps = 1
**.sink_101.app[0].typename = "TcpGenericServerApp"
**.sink_101.app[0].localAddress = ""
**.sink_101.app[0].localPort = 1100
**.sink_101.app[0].replyDelay = 0s

# Setup TCP server "sink_102"
**.sink_102.numApps = 1
**.sink_102.app[0].typename = "TcpGenericServerApp"
**.sink_102.app[0].localAddress = ""
**.sink_102.app[0].localPort = 1100
**.sink_102.app[0].replyDelay = 0s

# Setup TCP server "sink_103"
**.sink_103.numApps = 1
**.sink_103.app[0].typename = "TcpGenericServerApp"
**.sink_103.app[0].localAddress = ""
**.sink_103.app[0].localPort = 1100
**.sink_103.app[0].replyDelay = 0s

# Setup TCP server "sink_104"
**.sink_104.numApps = 1
**.sink_104.app[0].typename = "TcpGenericServerApp"
**.sink_104.app[0].localAddress = ""
**.sink_104.app[0].localPort = 1100
**.sink_104.app[0].replyDelay = 0s

# Setup TCP server "sink_105"
**.sink_105.numApps = 1
**.sink_105.app[0].typename = "TcpGenericServerApp"
**.sink_105.app[0].localAddress = ""
**.sink_105.app[0].localPort = 1100
**.sink_105.app[0].replyDelay = 0s

# Setup TCP server "sink_106"
**.sink_106.numApps = 1
**.sink_106.app[0].typename = "TcpGenericServerApp"
**.sink_106.app[0].localAddress = ""
**.sink_106.app[0].localPort = 1100
**.sink_106.app[0].replyDelay = 0s

# Setup TCP server "sink_107"
**.sink_107.numApps = 1
**.sink_107.app[0].typename = "TcpGenericServerApp"
**.sink_107.app[0].localAddress = ""
**.sink_107.app[0].localPort = 1100
**.sink_107.app[0].replyDelay = 0s

# Setup TCP server "sink_108"
**.sink_108.numApps = 1
**.sink_108.app[0].typename = "TcpGenericServerApp"
**.sink_108.app[0].localAddress = ""
**.sink_108.app[0].localPort = 1100
**.sink_108.app[0].replyDelay = 0s

# Setup TCP server "sink_109"
**.sink_109.numApps = 1
**.sink_109.app[0].typename = "TcpGenericServerApp"
**.sink_109.app[0].localAddress = ""
**.sink_109.app[0].localPort = 1100
**.sink_109.app[0].replyDelay = 0s

# Setup TCP server "sink_110"
**.sink_110.numApps = 1
**.sink_110.app[0].typename = "TcpGenericServerApp"
**.sink_110.app[0].localAddress = ""
**.sink_110.app[0].localPort = 1100
**.sink_110.app[0].replyDelay = 0s

# Setup TCP server "sink_111"
**.sink_111.numApps = 1
**.sink_111.app[0].typename = "TcpGenericServerApp"
**.sink_111.app[0].localAddress = ""
**.sink_111.app[0].localPort = 1100
**.sink_111.app[0].replyDelay = 0s

# Setup TCP server "sink_112"
**.sink_112.numApps = 1
**.sink_112.app[0].typename = "TcpGenericServerApp"
**.sink_112.app[0].localAddress = ""
**.sink_112.app[0].localPort = 1100
**.sink_112.app[0].replyDelay = 0s

# Setup TCP server "sink_113"
**.sink_113.numApps = 1
**.sink_113.app[0].typename = "TcpGenericServerApp"
**.sink_113.app[0].localAddress = ""
**.sink_113.app[0].localPort = 1100
**.sink_113.app[0].replyDelay = 0s

# Setup TCP server "sink_114"
**.sink_114.numApps = 1
**.sink_114.app[0].typename = "TcpGenericServerApp"
**.sink_114.app[0].localAddress = ""
**.sink_114.app[0].localPort = 1100
**.sink_114.app[0].replyDelay = 0s

# Setup TCP server "sink_115"
**.sink_115.numApps = 1
**.sink_115.app[0].typename = "TcpGenericServerApp"
**.sink_115.app[0].localAddress = ""
**.sink_115.app[0].localPort = 1100
**.sink_115.app[0].replyDelay = 0s

# Setup TCP server "sink_116"
**.sink_116.numApps = 1
**.sink_116.app[0].typename = "TcpGenericServerApp"
**.sink_116.app[0].localAddress = ""
**.sink_116.app[0].localPort = 1100
**.sink_116.app[0].replyDelay = 0s

# Setup TCP server "sink_117"
**.sink_117.numApps = 1
**.sink_117.app[0].typename = "TcpGenericServerApp"
**.sink_117.app[0].localAddress = ""
**.sink_117.app[0].localPort = 1100
**.sink_117.app[0].replyDelay = 0s

# Setup TCP server "sink_118"
**.sink_118.numApps = 1
**.sink_118.app[0].typename = "TcpGenericServerApp"
**.sink_118.app[0].localAddress = ""
**.sink_118.app[0].localPort = 1100
**.sink_118.app[0].replyDelay = 0s

# Setup TCP server "sink_119"
**.sink_119.numApps = 1
**.sink_119.app[0].typename = "TcpGenericServerApp"
**.sink_119.app[0].localAddress = ""
**.sink_119.app[0].localPort = 1100
**.sink_119.app[0].replyDelay = 0s

# Setup TCP server "sink_120"
**.sink_120.numApps = 1
**.sink_120.app[0].typename = "TcpGenericServerApp"
**.sink_120.app[0].localAddress = ""
**.sink_120.app[0].localPort = 1100
**.sink_120.app[0].replyDelay = 0s

# Setup TCP server "sink_121"
**.sink_121.numApps = 1
**.sink_121.app[0].typename = "TcpGenericServerApp"
**.sink_121.app[0].localAddress = ""
**.sink_121.app[0].localPort = 1100
**.sink_121.app[0].replyDelay = 0s

# Setup TCP server "sink_122"
**.sink_122.numApps = 1
**.sink_122.app[0].typename = "TcpGenericServerApp"
**.sink_122.app[0].localAddress = ""
**.sink_122.app[0].localPort = 1100
**.sink_122.app[0].replyDelay = 0s

# Setup TCP server "sink_123"
**.sink_123.numApps = 1
**.sink_123.app[0].typename = "TcpGenericServerApp"
**.sink_123.app[0].localAddress = ""
**.sink_123.app[0].localPort = 1100
**.sink_123.app[0].replyDelay = 0s

# Setup TCP server "sink_124"
**.sink_124.numApps = 1
**.sink_124.app[0].typename = "TcpGenericServerApp"
**.sink_124.app[0].localAddress = ""
**.sink_124.app[0].localPort = 1100
**.sink_124.app[0].replyDelay = 0s

# Setup TCP server "sink_125"
**.sink_125.numApps = 1
**.sink_125.app[0].typename = "TcpGenericServerApp"
**.sink_125.app[0].localAddress = ""
**.sink_125.app[0].localPort = 1100
**.sink_125.app[0].replyDelay = 0s

# Setup TCP server "sink_126"
**.sink_126.numApps = 1
**.sink_126.app[0].typename = "TcpGenericServerApp"
**.sink_126.app[0].localAddress = ""
**.sink_126.app[0].localPort = 1100
**.sink_126.app[0].replyDelay = 0s

# Setup TCP server "sink_127"
**.sink_127.numApps = 1
**.sink_127.app[0].typename = "TcpGenericServerApp"
**.sink_127.app[0].localAddress = ""
**.sink_127.app[0].localPort = 1100
**.sink_127.app[0].replyDelay = 0s

# Setup TCP server "sink_128"
**.sink_128.numApps = 1
**.sink_128.app[0].typename = "TcpGenericServerApp"
**.sink_128.app[0].localAddress = ""
**.sink_128.app[0].localPort = 1100
**.sink_128.app[0].replyDelay = 0s

# Setup TCP server "sink_129"
**.sink_129.numApps = 1
**.sink_129.app[0].typename = "TcpGenericServerApp"
**.sink_129.app[0].localAddress = ""
**.sink_129.app[0].localPort = 1100
**.sink_129.app[0].replyDelay = 0s

# Setup TCP server "sink_130"
**.sink_130.numApps = 1
**.sink_130.app[0].typename = "TcpGenericServerApp"
**.sink_130.app[0].localAddress = ""
**.sink_130.app[0].localPort = 1100
**.sink_130.app[0].replyDelay = 0s

# Setup TCP server "sink_131"
**.sink_131.numApps = 1
**.sink_131.app[0].typename = "TcpGenericServerApp"
**.sink_131.app[0].localAddress = ""
**.sink_131.app[0].localPort = 1100
**.sink_131.app[0].replyDelay = 0s

# Setup TCP server "sink_132"
**.sink_132.numApps = 1
**.sink_132.app[0].typename = "TcpGenericServerApp"
**.sink_132.app[0].localAddress = ""
**.sink_132.app[0].localPort = 1100
**.sink_132.app[0].replyDelay = 0s

# Setup TCP server "sink_133"
**.sink_133.numApps = 1
**.sink_133.app[0].typename = "TcpGenericServerApp"
**.sink_133.app[0].localAddress = ""
**.sink_133.app[0].localPort = 1100
**.sink_133.app[0].replyDelay = 0s

# Setup TCP server "sink_134"
**.sink_134.numApps = 1
**.sink_134.app[0].typename = "TcpGenericServerApp"
**.sink_134.app[0].localAddress = ""
**.sink_134.app[0].localPort = 1100
**.sink_134.app[0].replyDelay = 0s

# Setup TCP server "sink_135"
**.sink_135.numApps = 1
**.sink_135.app[0].typename = "TcpGenericServerApp"
**.sink_135.app[0].localAddress = ""
**.sink_135.app[0].localPort = 1100
**.sink_135.app[0].replyDelay = 0s

# Setup TCP server "sink_136"
**.sink_136.numApps = 1
**.sink_136.app[0].typename = "TcpGenericServerApp"
**.sink_136.app[0].localAddress = ""
**.sink_136.app[0].localPort = 1100
**.sink_136.app[0].replyDelay = 0s

# Setup TCP server "sink_137"
**.sink_137.numApps = 1
**.sink_137.app[0].typename = "TcpGenericServerApp"
**.sink_137.app[0].localAddress = ""
**.sink_137.app[0].localPort = 1100