[General]
network = Jellyfish_8_8_7_8__jelly_vary_num_switches_seed9

sim-time-limit = 1000s
simtime-resolution = us
total-stack = 32MiB
**.cmdenv-log-level = warn

# For router
**.ppp[*].ppp.queue.typename = "DropTailQueue"
**.ppp[*].ppp.queue.packetCapacity = 100

# Configurator settings
*.configurator.config = xmldoc("Jellyfish_8_8_7_8__jelly_vary_num_switches_seed9.xml")

# Setup TCP server "sink_000"
**.sink_000.numApps = 1
**.sink_000.app[0].typename = "TcpGenericServerApp"
**.sink_000.app[0].localAddress = ""
**.sink_000.app[0].localPort = 1100
**.sink_000.app[0].replyDelay = 0s

# Setup TCP server "sink_001"
**.sink_001.numApps = 1
**.sink_001.app[0].typename = "TcpGenericServerApp"
**.sink_001.app[0].localAddress = ""
**.sink_001.app[0].localPort = 1100
**.sink_001.app[0].replyDelay = 0s

# Setup TCP server "sink_002"
**.sink_002.numApps = 1
**.sink_002.app[0].typename = "TcpGenericServerApp"
**.sink_002.app[0].localAddress = ""
**.sink_002.app[0].localPort = 1100
**.sink_002.app[0].replyDelay = 0s

# Setup TCP server "sink_003"
**.sink_003.numApps = 1
**.sink_003.app[0].typename = "TcpGenericServerApp"
**.sink_003.app[0].localAddress = ""
**.sink_003.app[0].localPort = 1100
**.sink_003.app[0].replyDelay = 0s

# Setup TCP server "sink_004"
**.sink_004.numApps = 1
**.sink_004.app[0].typename = "TcpGenericServerApp"
**.sink_004.app[0].localAddress = ""
**.sink_004.app[0].localPort = 1100
**.sink_004.app[0].replyDelay = 0s

# Setup TCP server "sink_005"
**.sink_005.numApps = 1
**.sink_005.app[0].typename = "TcpGenericServerApp"
**.sink_005.app[0].localAddress = ""
**.sink_005.app[0].localPort = 1100
**.sink_005.app[0].replyDelay = 0s

# Setup TCP server "sink_006"
**.sink_006.numApps = 1
**.sink_006.app[0].typename = "TcpGenericServerApp"
**.sink_006.app[0].localAddress = ""
**.sink_006.app[0].localPort = 1100
**.sink_006.app[0].replyDelay = 0s

# Setup TCP server "sink_007"
**.sink_007.numApps = 1
**.sink_007.app[0].typename = "TcpGenericServerApp"
**.sink_007.app[0].localAddress = ""
**.sink_007.app[0].localPort = 1100
**.sink_007.app[0].replyDelay = 0s

# Setup TCP server "sink_008"
**.sink_008.numApps = 1
**.sink_008.app[0].typename = "TcpGenericServerApp"
**.sink_008.app[0].localAddress = ""
**.sink_008.app[0].localPort = 1100
**.sink_008.app[0].replyDelay = 0s

# Setup TCP server "sink_009"
**.sink_009.numApps = 1
**.sink_009.app[0].typename = "TcpGenericServerApp"
**.sink_009.app[0].localAddress = ""
**.sink_009.app[0].localPort = 1100
**.sink_009.app[0].replyDelay = 0s

# Setup TCP server "sink_010"
**.sink_010.numApps = 1
**.sink_010.app[0].typename = "TcpGenericServerApp"
**.sink_010.app[0].localAddress = ""
**.sink_010.app[0].localPort = 1100
**.sink_010.app[0].replyDelay = 0s

# Setup TCP server "sink_011"
**.sink_011.numApps = 1
**.sink_011.app[0].typename = "TcpGenericServerApp"
**.sink_011.app[0].localAddress = ""
**.sink_011.app[0].localPort = 1100
**.sink_011.app[0].replyDelay = 0s

# Setup TCP server "sink_012"
**.sink_012.numApps = 1
**.sink_012.app[0].typename = "TcpGenericServerApp"
**.sink_012.app[0].localAddress = ""
**.sink_012.app[0].localPort = 1100
**.sink_012.app[0].replyDelay = 0s

# Setup TCP server "sink_013"
**.sink_013.numApps = 1
**.sink_013.app[0].typename = "TcpGenericServerApp"
**.sink_013.app[0].localAddress = ""
**.sink_013.app[0].localPort = 1100
**.sink_013.app[0].replyDelay = 0s

# Setup TCP server "sink_014"
**.sink_014.numApps = 1
**.sink_014.app[0].typename = "TcpGenericServerApp"
**.sink_014.app[0].localAddress = ""
**.sink_014.app[0].localPort = 1100
**.sink_014.app[0].replyDelay = 0s

# Setup TCP server "sink_015"
**.sink_015.numApps = 1
**.sink_015.app[0].typename = "TcpGenericServerApp"
**.sink_015.app[0].localAddress = ""
**.sink_015.app[0].localPort = 1100
**.sink_015.app[0].replyDelay = 0s

# Setup TCP server "sink_016"
**.sink_016.numApps = 1
**.sink_016.app[0].typename = "TcpGenericServerApp"
**.sink_016.app[0].localAddress = ""
**.sink_016.app[0].localPort = 1100
**.sink_016.app[0].replyDelay = 0s

# Setup TCP server "sink_017"
**.sink_017.numApps = 1
**.sink_017.app[0].typename = "TcpGenericServerApp"
**.sink_017.app[0].localAddress = ""
**.sink_017.app[0].localPort = 1100
**.sink_017.app[0].replyDelay = 0s

# Setup TCP server "sink_018"
**.sink_018.numApps = 1
**.sink_018.app[0].typename = "TcpGenericServerApp"
**.sink_018.app[0].localAddress = ""
**.sink_018.app[0].localPort = 1100
**.sink_018.app[0].replyDelay = 0s

# Setup TCP server "sink_019"
**.sink_019.numApps = 1
**.sink_019.app[0].typename = "TcpGenericServerApp"
**.sink_019.app[0].localAddress = ""
**.sink_019.app[0].localPort = 1100
**.sink_019.app[0].replyDelay = 0s

# Setup TCP server "sink_020"
**.sink_020.numApps = 1
**.sink_020.app[0].typename = "TcpGenericServerApp"
**.sink_020.app[0].localAddress = ""
**.sink_020.app[0].localPort = 1100
**.sink_020.app[0].replyDelay = 0s

# Setup TCP server "sink_021"
**.sink_021.numApps = 1
**.sink_021.app[0].typename = "TcpGenericServerApp"
**.sink_021.app[0].localAddress = ""
**.sink_021.app[0].localPort = 1100
**.sink_021.app[0].replyDelay = 0s

# Setup TCP server "sink_022"
**.sink_022.numApps = 1
**.sink_022.app[0].typename = "TcpGenericServerApp"
**.sink_022.app[0].localAddress = ""
**.sink_022.app[0].localPort = 1100
**.sink_022.app[0].replyDelay = 0s

# Setup TCP server "sink_023"
**.sink_023.numApps = 1
**.sink_023.app[0].typename = "TcpGenericServerApp"
**.sink_023.app[0].localAddress = ""
**.sink_023.app[0].localPort = 1100
**.sink_023.app[0].replyDelay = 0s

# Setup TCP server "sink_024"
**.sink_024.numApps = 1
**.sink_024.app[0].typename = "TcpGenericServerApp"
**.sink_024.app[0].localAddress = ""
**.sink_024.app[0].localPort = 1100
**.sink_024.app[0].replyDelay = 0s

# Setup TCP server "sink_025"
**.sink_025.numApps = 1
**.sink_025.app[0].typename = "TcpGenericServerApp"
**.sink_025.app[0].localAddress = ""
**.sink_025.app[0].localPort = 1100
**.sink_025.app[0].replyDelay = 0s

# Setup TCP server "sink_026"
**.sink_026.numApps = 1
**.sink_026.app[0].typename = "TcpGenericServerApp"
**.sink_026.app[0].localAddress = ""
**.sink_026.app[0].localPort = 1100
**.sink_026.app[0].replyDelay = 0s

# Setup TCP server "sink_027"
**.sink_027.numApps = 1
**.sink_027.app[0].typename = "TcpGenericServerApp"
**.sink_027.app[0].localAddress = ""
**.sink_027.app[0].localPort = 1100
**.sink_027.app[0].replyDelay = 0s

# Setup TCP server "sink_028"
**.sink_028.numApps = 1
**.sink_028.app[0].typename = "TcpGenericServerApp"
**.sink_028.app[0].localAddress = ""
**.sink_028.app[0].localPort = 1100
**.sink_028.app[0].replyDelay = 0s

# Setup TCP server "sink_029"
**.sink_029.numApps = 1
**.sink_029.app[0].typename = "TcpGenericServerApp"
**.sink_029.app[0].localAddress = ""
**.sink_029.app[0].localPort = 1100
**.sink_029.app[0].replyDelay = 0s

# Setup TCP server "sink_030"
**.sink_030.numApps = 1
**.sink_030.app[0].typename = "TcpGenericServerApp"
**.sink_030.app[0].localAddress = ""
**.sink_030.app[0].localPort = 1100
**.sink_030.app[0].replyDelay = 0s

# Setup TCP server "sink_031"
**.sink_031.numApps = 1
**.sink_031.app[0].typename = "TcpGenericServerApp"
**.sink_031.app[0].localAddress = ""
**.sink_031.app[0].localPort = 1100
**.sink_031.app[0].replyDelay = 0s

# Setup TCP server "sink_032"
**.sink_032.numApps = 1
**.sink_032.app[0].typename = "TcpGenericServerApp"
**.sink_032.app[0].localAddress = ""
**.sink_032.app[0].localPort = 1100
**.sink_032.app[0].replyDelay = 0s

# Setup TCP server "sink_033"
**.sink_033.numApps = 1
**.sink_033.app[0].typename = "TcpGenericServerApp"
**.sink_033.app[0].localAddress = ""
**.sink_033.app[0].localPort = 1100
**.sink_033.app[0].replyDelay = 0s

# Setup TCP server "sink_034"
**.sink_034.numApps = 1
**.sink_034.app[0].typename = "TcpGenericServerApp"
**.sink_034.app[0].localAddress = ""
**.sink_034.app[0].localPort = 1100
**.sink_034.app[0].replyDelay = 0s

# Setup TCP server "sink_035"
**.sink_035.numApps = 1
**.sink_035.app[0].typename = "TcpGenericServerApp"
**.sink_035.app[0].localAddress = ""
**.sink_035.app[0].localPort = 1100
**.sink_035.app[0].replyDelay = 0s

# Setup TCP server "sink_036"
**.sink_036.numApps = 1
**.sink_036.app[0].typename = "TcpGenericServerApp"
**.sink_036.app[0].localAddress = ""
**.sink_036.app[0].localPort = 1100
**.sink_036.app[0].replyDelay = 0s

# Setup TCP server "sink_037"
**.sink_037.numApps = 1
**.sink_037.app[0].typename = "TcpGenericServerApp"
**.sink_037.app[0].localAddress = ""
**.sink_037.app[0].localPort = 1100
**.sink_037.app[0].replyDelay = 0s

# Setup TCP server "sink_038"
**.sink_038.numApps = 1
**.sink_038.app[0].typename = "TcpGenericServerApp"
**.sink_038.app[0].localAddress = ""
**.sink_038.app[0].localPort = 1100
**.sink_038.app[0].replyDelay = 0s

# Setup TCP server "sink_039"
**.sink_039.numApps = 1
**.sink_039.app[0].typename = "TcpGenericServerApp"
**.sink_039.app[0].localAddress = ""
**.sink_039.app[0].localPort = 1100
**.sink_039.app[0].replyDelay = 0s

# Setup TCP server "sink_040"
**.sink_040.numApps = 1
**.sink_040.app[0].typename = "TcpGenericServerApp"
**.sink_040.app[0].localAddress = ""
**.sink_040.app[0].localPort = 1100
**.sink_040.app[0].replyDelay = 0s

# Setup TCP server "sink_041"
**.sink_041.numApps = 1
**.sink_041.app[0].typename = "TcpGenericServerApp"
**.sink_041.app[0].localAddress = ""
**.sink_041.app[0].localPort = 1100
**.sink_041.app[0].replyDelay = 0s

# Setup TCP server "sink_042"
**.sink_042.numApps = 1
**.sink_042.app[0].typename = "TcpGenericServerApp"
**.sink_042.app[0].localAddress = ""
**.sink_042.app[0].localPort = 1100
**.sink_042.app[0].replyDelay = 0s

# Setup TCP server "sink_043"
**.sink_043.numApps = 1
**.sink_043.app[0].typename = "TcpGenericServerApp"
**.sink_043.app[0].localAddress = ""
**.sink_043.app[0].localPort = 1100
**.sink_043.app[0].replyDelay = 0s

# Setup TCP server "sink_044"
**.sink_044.numApps = 1
**.sink_044.app[0].typename = "TcpGenericServerApp"
**.sink_044.app[0].localAddress = ""
**.sink_044.app[0].localPort = 1100
**.sink_044.app[0].replyDelay = 0s

# Setup TCP server "sink_045"
**.sink_045.numApps = 1
**.sink_045.app[0].typename = "TcpGenericServerApp"
**.sink_045.app[0].localAddress = ""
**.sink_045.app[0].localPort = 1100
**.sink_045.app[0].replyDelay = 0s

# Setup TCP server "sink_046"
**.sink_046.numApps = 1
**.sink_046.app[0].typename = "TcpGenericServerApp"
**.sink_046.app[0].localAddress = ""
**.sink_046.app[0].localPort = 1100
**.sink_046.app[0].replyDelay = 0s

# Setup TCP server "sink_047"
**.sink_047.numApps = 1
**.sink_047.app[0].typename = "TcpGenericServerApp"
**.sink_047.app[0].localAddress = ""
**.sink_047.app[0].localPort = 1100
**.sink_047.app[0].replyDelay = 0s

# Setup TCP server "sink_048"
**.sink_048.numApps = 1
**.sink_048.app[0].typename = "TcpGenericServerApp"
**.sink_048.app[0].localAddress = ""
**.sink_048.app[0].localPort = 1100
**.sink_048.app[0].replyDelay = 0s

# Setup TCP server "sink_049"
**.sink_049.numApps = 1
**.sink_049.app[0].typename = "TcpGenericServerApp"
**.sink_049.app[0].localAddress = ""
**.sink_049.app[0].localPort = 1100
**.sink_049.app[0].replyDelay = 0s

# Setup TCP server "sink_050"
**.sink_050.numApps = 1
**.sink_050.app[0].typename = "TcpGenericServerApp"
**.sink_050.app[0].localAddress = ""
**.sink_050.app[0].localPort = 1100
**.sink_050.app[0].replyDelay = 0s

# Setup TCP server "sink_051"
**.sink_051.numApps = 1
**.sink_051.app[0].typename = "TcpGenericServerApp"
**.sink_051.app[0].localAddress = ""
**.sink_051.app[0].localPort = 1100
**.sink_051.app[0].replyDelay = 0s

# Setup TCP server "sink_052"
**.sink_052.numApps = 1
**.sink_052.app[0].typename = "TcpGenericServerApp"
**.sink_052.app[0].localAddress = ""
**.sink_052.app[0].localPort = 1100
**.sink_052.app[0].replyDelay = 0s

# Setup TCP server "sink_053"
**.sink_053.numApps = 1
**.sink_053.app[0].typename = "TcpGenericServerApp"
**.sink_053.app[0].localAddress = ""
**.sink_053.app[0].localPort = 1100
**.sink_053.app[0].replyDelay = 0s

# Setup TCP server "sink_054"
**.sink_054.numApps = 1
**.sink_054.app[0].typename = "TcpGenericServerApp"
**.sink_054.app[0].localAddress = ""
**.sink_054.app[0].localPort = 1100
**.sink_054.app[0].replyDelay = 0s

# Setup TCP server "sink_055"
**.sink_055.numApps = 1
**.sink_055.app[0].typename = "TcpGenericServerApp"
**.sink_055.app[0].localAddress = ""
**.sink_055.app[0].localPort = 1100
**.sink_055.app[0].replyDelay = 0s

# Setup TCP server "sink_056"
**.sink_056.numApps = 1
**.sink_056.app[0].typename = "TcpGenericServerApp"
**.sink_056.app[0].localAddress = ""
**.sink_056.app[0].localPort = 1100
**.sink_056.app[0].replyDelay = 0s

# Setup TCP client "source_000"
**.source_000.numApps = 1
**.source_000.app[0].typename = "TcpBasicClientApp"
**.source_000.app[0].localAddress = ""
**.source_000.app[0].connectAddress = "sink_000"
**.source_000.app[0].connectPort = 1100
**.source_000.app[0].startTime = 0s
**.source_000.app[0].idleInterval = 1000s
**.source_000.app[0].requestLength = 1300B
**.source_000.app[0].replyLength = 20B
**.source_000.app[0].thinkTime = 0s
**.source_000.app[0].numRequestsPerSession = 8

# Setup TCP client "source_001"
**.source_001.numApps = 1
**.source_001.app[0].typename = "TcpBasicClientApp"
**.source_001.app[0].localAddress = ""
**.source_001.app[0].connectAddress = "sink_001"
**.source_001.app[0].connectPort = 1100
**.source_001.app[0].startTime = 0s
**.source_001.app[0].idleInterval = 1000s
**.source_001.app[0].requestLength = 1300B
**.source_001.app[0].replyLength = 20B
**.source_001.app[0].thinkTime = 0s
**.source_001.app[0].numRequestsPerSession = 4

# Setup TCP client "source_002"
**.source_002.numApps = 1
**.source_002.app[0].typename = "TcpBasicClientApp"
**.source_002.app[0].localAddress = ""
**.source_002.app[0].connectAddress = "sink_002"
**.source_002.app[0].connectPort = 1100
**.source_002.app[0].startTime = 0s
**.source_002.app[0].idleInterval = 1000s
**.source_002.app[0].requestLength = 1300B
**.source_002.app[0].replyLength = 20B
**.source_002.app[0].thinkTime = 0s
**.source_002.app[0].numRequestsPerSession = 8

# Setup TCP client "source_003"
**.source_003.numApps = 1
**.source_003.app[0].typename = "TcpBasicClientApp"
**.source_003.app[0].localAddress = ""
**.source_003.app[0].connectAddress = "sink_003"
**.source_003.app[0].connectPort = 1100
**.source_003.app[0].startTime = 0s
**.source_003.app[0].idleInterval = 1000s
**.source_003.app[0].requestLength = 1300B
**.source_003.app[0].replyLength = 20B
**.source_003.app[0].thinkTime = 0s
**.source_003.app[0].numRequestsPerSession = 4

# Setup TCP client "source_004"
**.source_004.numApps = 1
**.source_004.app[0].typename = "TcpBasicClientApp"
**.source_004.app[0].localAddress = ""
**.source_004.app[0].connectAddress = "sink_004"
**.source_004.app[0].connectPort = 1100
**.source_004.app[0].startTime = 0s
**.source_004.app[0].idleInterval = 1000s
**.source_004.app[0].requestLength = 1300B
**.source_004.app[0].replyLength = 20B
**.source_004.app[0].thinkTime = 0s
**.source_004.app[0].numRequestsPerSession = 3

# Setup TCP client "source_005"
**.source_005.numApps = 1
**.source_005.app[0].typename = "TcpBasicClientApp"
**.source_005.app[0].localAddress = ""
**.source_005.app[0].connectAddress = "sink_005"
**.source_005.app[0].connectPort = 1100
**.source_005.app[0].startTime = 0s
**.source_005.app[0].idleInterval = 1000s
**.source_005.app[0].requestLength = 1300B
**.source_005.app[0].replyLength = 20B
**.source_005.app[0].thinkTime = 0s
**.source_005.app[0].numRequestsPerSession = 3

# Setup TCP client "source_006"
**.source_006.numApps = 1
**.source_006.app[0].typename = "TcpBasicClientApp"
**.source_006.app[0].localAddress = ""
**.source_006.app[0].connectAddress = "sink_006"
**.source_006.app[0].connectPort = 1100
**.source_006.app[0].startTime = 0s
**.source_006.app[0].idleInterval = 1000s
**.source_006.app[0].requestLength = 1300B
**.source_006.app[0].replyLength = 20B
**.source_006.app[0].thinkTime = 0s
**.source_006.app[0].numRequestsPerSession = 5

# Setup TCP client "source_007"
**.source_007.numApps = 1
**.source_007.app[0].typename = "TcpBasicClientApp"
**.source_007.app[0].localAddress = ""
**.source_007.app[0].connectAddress = "sink_007"
**.source_007.app[0].connectPort = 1100
**.source_007.app[0].startTime = 0s
**.source_007.app[0].idleInterval = 1000s
**.source_007.app[0].requestLength = 1300B
**.source_007.app[0].replyLength = 20B
**.source_007.app[0].thinkTime = 0s
**.source_007.app[0].numRequestsPerSession = 2

# Setup TCP client "source_008"
**.source_008.numApps = 1
**.source_008.app[0].typename = "TcpBasicClientApp"
**.source_008.app[0].localAddress = ""
**.source_008.app[0].connectAddress = "sink_008"
**.source_008.app[0].connectPort = 1100
**.source_008.app[0].startTime = 0s
**.source_008.app[0].idleInterval = 1000s
**.source_008.app[0].requestLength = 1300B
**.source_008.app[0].replyLength = 20B
**.source_008.app[0].thinkTime = 0s
**.source_008.app[0].numRequestsPerSession = 34

# Setup TCP client "source_009"
**.source_009.numApps = 1
**.source_009.app[0].typename = "TcpBasicClientApp"
**.source_009.app[0].localAddress = ""
**.source_009.app[0].connectAddress = "sink_009"
**.source_009.app[0].connectPort = 1100
**.source_009.app[0].startTime = 0s
**.source_009.app[0].idleInterval = 1000s
**.source_009.app[0].requestLength = 1300B
**.source_009.app[0].replyLength = 20B
**.source_009.app[0].thinkTime = 0s
**.source_009.app[0].numRequestsPerSession = 423

# Setup TCP client "source_010"
**.source_010.numApps = 1
**.source_010.app[0].typename = "TcpBasicClientApp"
**.source_010.app[0].localAddress = ""
**.source_010.app[0].connectAddress = "sink_010"
**.source_010.app[0].connectPort = 1100
**.source_010.app[0].startTime = 0s
**.source_010.app[0].idleInterval = 1000s
**.source_010.app[0].requestLength = 1300B
**.source_010.app[0].replyLength = 20B
**.source_010.app[0].thinkTime = 0s
**.source_010.app[0].numRequestsPerSession = 16

# Setup TCP client "source_011"
**.source_011.numApps = 1
**.source_011.app[0].typename = "TcpBasicClientApp"
**.source_011.app[0].localAddress = ""
**.source_011.app[0].connectAddress = "sink_011"
**.source_011.app[0].connectPort = 1100
**.source_011.app[0].startTime = 0s
**.source_011.app[0].idleInterval = 1000s
**.source_011.app[0].requestLength = 1300B
**.source_011.app[0].replyLength = 20B
**.source_011.app[0].thinkTime = 0s
**.source_011.app[0].numRequestsPerSession = 40

# Setup TCP client "source_012"
**.source_012.numApps = 1
**.source_012.app[0].typename = "TcpBasicClientApp"
**.source_012.app[0].localAddress = ""
**.source_012.app[0].connectAddress = "sink_012"
**.source_012.app[0].connectPort = 1100
**.source_012.app[0].startTime = 0s
**.source_012.app[0].idleInterval = 1000s
**.source_012.app[0].requestLength = 1300B
**.source_012.app[0].replyLength = 20B
**.source_012.app[0].thinkTime = 0s
**.source_012.app[0].numRequestsPerSession = 226

# Setup TCP client "source_013"
**.source_013.numApps = 1
**.source_013.app[0].typename = "TcpBasicClientApp"
**.source_013.app[0].localAddress = ""
**.source_013.app[0].connectAddress = "sink_013"
**.source_013.app[0].connectPort = 1100
**.source_013.app[0].startTime = 0s
**.source_013.app[0].idleInterval = 1000s
**.source_013.app[0].requestLength = 1300B
**.source_013.app[0].replyLength = 20B
**.source_013.app[0].thinkTime = 0s
**.source_013.app[0].numRequestsPerSession = 21

# Setup TCP client "source_014"
**.source_014.numApps = 1
**.source_014.app[0].typename = "TcpBasicClientApp"
**.source_014.app[0].localAddress = ""
**.source_014.app[0].connectAddress = "sink_014"
**.source_014.app[0].connectPort = 1100
**.source_014.app[0].startTime = 0s
**.source_014.app[0].idleInterval = 1000s
**.source_014.app[0].requestLength = 1300B
**.source_014.app[0].replyLength = 20B
**.source_014.app[0].thinkTime = 0s
**.source_014.app[0].numRequestsPerSession = 269

# Setup TCP client "source_015"
**.source_015.numApps = 1
**.source_015.app[0].typename = "TcpBasicClientApp"
**.source_015.app[0].localAddress = ""
**.source_015.app[0].connectAddress = "sink_015"
**.source_015.app[0].connectPort = 1100
**.source_015.app[0].startTime = 0s
**.source_015.app[0].idleInterval = 1000s
**.source_015.app[0].requestLength = 1300B
**.source_015.app[0].replyLength = 20B
**.source_015.app[0].thinkTime = 0s
**.source_015.app[0].numRequestsPerSession = 1

# Setup TCP client "source_016"
**.source_016.numApps = 1
**.source_016.app[0].typename = "TcpBasicClientApp"
**.source_016.app[0].localAddress = ""
**.source_016.app[0].connectAddress = "sink_016"
**.source_016.app[0].connectPort = 1100
**.source_016.app[0].startTime = 0s
**.source_016.app[0].idleInterval = 1000s
**.source_016.app[0].requestLength = 1300B
**.source_016.app[0].replyLength = 20B
**.source_016.app[0].thinkTime = 0s
**.source_016.app[0].numRequestsPerSession = 6

# Setup TCP client "source_017"
**.source_017.numApps = 1
**.source_017.app[0].typename = "TcpBasicClientApp"
**.source_017.app[0].localAddress = ""
**.source_017.app[0].connectAddress = "sink_017"
**.source_017.app[0].connectPort = 1100
**.source_017.app[0].startTime = 0s
**.source_017.app[0].idleInterval = 1000s
**.source_017.app[0].requestLength = 1300B
**.source_017.app[0].replyLength = 20B
**.source_017.app[0].thinkTime = 0s
**.source_017.app[0].numRequestsPerSession = 153

# Setup TCP client "source_018"
**.source_018.numApps = 1
**.source_018.app[0].typename = "TcpBasicClientApp"
**.source_018.app[0].localAddress = ""
**.source_018.app[0].connectAddress = "sink_018"
**.source_018.app[0].connectPort = 1100
**.source_018.app[0].startTime = 0s
**.source_018.app[0].idleInterval = 1000s
**.source_018.app[0].requestLength = 1300B
**.source_018.app[0].replyLength = 20B
**.source_018.app[0].thinkTime = 0s
**.source_018.app[0].numRequestsPerSession = 37

# Setup TCP client "source_019"
**.source_019.numApps = 1
**.source_019.app[0].typename = "TcpBasicClientApp"
**.source_019.app[0].localAddress = ""
**.source_019.app[0].connectAddress = "sink_019"
**.source_019.app[0].connectPort = 1100
**.source_019.app[0].startTime = 0s
**.source_019.app[0].idleInterval = 1000s
**.source_019.app[0].requestLength = 1300B
**.source_019.app[0].replyLength = 20B
**.source_019.app[0].thinkTime = 0s
**.source_019.app[0].numRequestsPerSession = 9

# Setup TCP client "source_020"
**.source_020.numApps = 1
**.source_020.app[0].typename = "TcpBasicClientApp"
**.source_020.app[0].localAddress = ""
**.source_020.app[0].connectAddress = "sink_020"
**.source_020.app[0].connectPort = 1100
**.source_020.app[0].startTime = 0s
**.source_020.app[0].idleInterval = 1000s
**.source_020.app[0].requestLength = 1300B
**.source_020.app[0].replyLength = 20B
**.source_020.app[0].thinkTime = 0s
**.source_020.app[0].numRequestsPerSession = 64

# Setup TCP client "source_021"
**.source_021.numApps = 1
**.source_021.app[0].typename = "TcpBasicClientApp"
**.source_021.app[0].localAddress = ""
**.source_021.app[0].connectAddress = "sink_021"
**.source_021.app[0].connectPort = 1100
**.source_021.app[0].startTime = 0s
**.source_021.app[0].idleInterval = 1000s
**.source_021.app[0].requestLength = 1300B
**.source_021.app[0].replyLength = 20B
**.source_021.app[0].thinkTime = 0s
**.source_021.app[0].numRequestsPerSession = 19

# Setup TCP client "source_022"
**.source_022.numApps = 1
**.source_022.app[0].typename = "TcpBasicClientApp"
**.source_022.app[0].localAddress = ""
**.source_022.app[0].connectAddress = "sink_022"
**.source_022.app[0].connectPort = 1100
**.source_022.app[0].startTime = 0s
**.source_022.app[0].idleInterval = 1000s
**.source_022.app[0].requestLength = 1300B
**.source_022.app[0].replyLength = 20B
**.source_022.app[0].thinkTime = 0s
**.source_022.app[0].numRequestsPerSession = 26

# Setup TCP client "source_023"
**.source_023.numApps = 1
**.source_023.app[0].typename = "TcpBasicClientApp"
**.source_023.app[0].localAddress = ""
**.source_023.app[0].connectAddress = "sink_023"
**.source_023.app[0].connectPort = 1100
**.source_023.app[0].startTime = 0s
**.source_023.app[0].idleInterval = 1000s
**.source_023.app[0].requestLength = 1300B
**.source_023.app[0].replyLength = 20B
**.source_023.app[0].thinkTime = 0s
**.source_023.app[0].numRequestsPerSession = 4

# Setup TCP client "source_024"
**.source_024.numApps = 1
**.source_024.app[0].typename = "TcpBasicClientApp"
**.source_024.app[0].localAddress = ""
**.source_024.app[0].connectAddress = "sink_024"
**.source_024.app[0].connectPort = 1100
**.source_024.app[0].startTime = 0s
**.source_024.app[0].idleInterval = 1000s
**.source_024.app[0].requestLength = 1300B
**.source_024.app[0].replyLength = 20B
**.source_024.app[0].thinkTime = 0s
**.source_024.app[0].numRequestsPerSession = 13

# Setup TCP client "source_025"
**.source_025.numApps = 1
**.source_025.app[0].typename = "TcpBasicClientApp"
**.source_025.app[0].localAddress = ""
**.source_025.app[0].connectAddress = "sink_025"
**.source_025.app[0].connectPort = 1100
**.source_025.app[0].startTime = 0s
**.source_025.app[0].idleInterval = 1000s
**.source_025.app[0].requestLength = 1300B
**.source_025.app[0].replyLength = 20B
**.source_025.app[0].thinkTime = 0s
**.source_025.app[0].numRequestsPerSession = 17

# Setup TCP client "source_026"
**.source_026.numApps = 1
**.source_026.app[0].typename = "TcpBasicClientApp"
**.source_026.app[0].localAddress = ""
**.source_026.app[0].connectAddress = "sink_026"
**.source_026.app[0].connectPort = 1100
**.source_026.app[0].startTime = 0s
**.source_026.app[0].idleInterval = 1000s
**.source_026.app[0].requestLength = 1300B
**.source_026.app[0].replyLength = 20B
**.source_026.app[0].thinkTime = 0s
**.source_026.app[0].numRequestsPerSession = 3

# Setup TCP client "source_027"
**.source_027.numApps = 1
**.source_027.app[0].typename = "TcpBasicClientApp"
**.source_027.app[0].localAddress = ""
**.source_027.app[0].connectAddress = "sink_027"
**.source_027.app[0].connectPort = 1100
**.source_027.app[0].startTime = 0s
**.source_027.app[0].idleInterval = 1000s
**.source_027.app[0].requestLength = 1300B
**.source_027.app[0].replyLength = 20B
**.source_027.app[0].thinkTime = 0s
**.source_027.app[0].numRequestsPerSession = 7

# Setup TCP client "source_028"
**.source_028.numApps = 1
**.source_028.app[0].typename = "TcpBasicClientApp"
**.source_028.app[0].localAddress = ""
**.source_028.app[0].connectAddress = "sink_028"
**.source_028.app[0].connectPort = 1100
**.source_028.app[0].startTime = 0s
**.source_028.app[0].idleInterval = 1000s
**.source_028.app[0].requestLength = 1300B
**.source_028.app[0].replyLength = 20B
**.source_028.app[0].thinkTime = 0s
**.source_028.app[0].numRequestsPerSession = 128

# Setup TCP client "source_029"
**.source_029.numApps = 1
**.source_029.app[0].typename = "TcpBasicClientApp"
**.source_029.app[0].localAddress = ""
**.source_029.app[0].connectAddress = "sink_029"
**.source_029.app[0].connectPort = 1100
**.source_029.app[0].startTime = 0s
**.source_029.app[0].idleInterval = 1000s
**.source_029.app[0].requestLength = 1300B
**.source_029.app[0].replyLength = 20B
**.source_029.app[0].thinkTime = 0s
**.source_029.app[0].numRequestsPerSession = 1

# Setup TCP client "source_030"
**.source_030.numApps = 1
**.source_030.app[0].typename = "TcpBasicClientApp"
**.source_030.app[0].localAddress = ""
**.source_030.app[0].connectAddress = "sink_030"
**.source_030.app[0].connectPort = 1100
**.source_030.app[0].startTime = 0s
**.source_030.app[0].idleInterval = 1000s
**.source_030.app[0].requestLength = 1300B
**.source_030.app[0].replyLength = 20B
**.source_030.app[0].thinkTime = 0s
**.source_030.app[0].numRequestsPerSession = 5

# Setup TCP client "source_031"
**.source_031.numApps = 1
**.source_031.app[0].typename = "TcpBasicClientApp"
**.source_031.app[0].localAddress = ""
**.source_031.app[0].connectAddress = "sink_031"
**.source_031.app[0].connectPort = 1100
**.source_031.app[0].startTime = 0s
**.source_031.app[0].idleInterval = 1000s
**.source_031.app[0].requestLength = 1300B
**.source_031.app[0].replyLength = 20B
**.source_031.app[0].thinkTime = 0s
**.source_031.app[0].numRequestsPerSession = 15

# Setup TCP client "source_032"
**.source_032.numApps = 1
**.source_032.app[0].typename = "TcpBasicClientApp"
**.source_032.app[0].localAddress = ""
**.source_032.app[0].connectAddress = "sink_032"
**.source_032.app[0].connectPort = 1100
**.source_032.app[0].startTime = 0s
**.source_032.app[0].idleInterval = 1000s
**.source_032.app[0].requestLength = 1300B
**.source_032.app[0].replyLength = 20B
**.source_032.app[0].thinkTime = 0s
**.source_032.app[0].numRequestsPerSession = 104

# Setup TCP client "source_033"
**.source_033.numApps = 1
**.source_033.app[0].typename = "TcpBasicClientApp"
**.source_033.app[0].localAddress = ""
**.source_033.app[0].connectAddress = "sink_033"
**.source_033.app[0].connectPort = 1100
**.source_033.app[0].startTime = 0s
**.source_033.app[0].idleInterval = 1000s
**.source_033.app[0].requestLength = 1300B
**.source_033.app[0].replyLength = 20B
**.source_033.app[0].thinkTime = 0s
**.source_033.app[0].numRequestsPerSession = 85

# Setup TCP client "source_034"
**.source_034.numApps = 1
**.source_034.app[0].typename = "TcpBasicClientApp"
**.source_034.app[0].localAddress = ""
**.source_034.app[0].connectAddress = "sink_034"
**.source_034.app[0].connectPort = 1100
**.source_034.app[0].startTime = 0s
**.source_034.app[0].idleInterval = 1000s
**.source_034.app[0].requestLength = 1300B
**.source_034.app[0].replyLength = 20B
**.source_034.app[0].thinkTime = 0s
**.source_034.app[0].numRequestsPerSession = 155

# Setup TCP client "source_035"
**.source_035.numApps = 1
**.source_035.app[0].typename = "TcpBasicClientApp"
**.source_035.app[0].localAddress = ""
**.source_035.app[0].connectAddress = "sink_035"
**.source_035.app[0].connectPort = 1100
**.source_035.app[0].startTime = 0s
**.source_035.app[0].idleInterval = 1000s
**.source_035.app[0].requestLength = 1300B
**.source_035.app[0].replyLength = 20B
**.source_035.app[0].thinkTime = 0s